version 2
run try-0-20190524-11:46:22-32613
attr configname try
attr datetime 20190524-11:46:22
attr experiment try
attr inifile omnetpp.ini
attr iterationvars ""
attr iterationvarsf ""
attr measurement ""
attr network sdncontroller.simulations.Net1
attr processid 32613
attr repetition 0
attr replication #0
attr resultdir results
attr runnumber 0
attr seedset 0
param **.host.app[0].mntopo "\"net1\""
param **.host.app[0].application "\"App1\""
param **.host.app[0].flows "xmldoc(\"flows/flow1.xml\")"
param **.host.app[0].runMininet false
param **.networkConfiguratorModule "\"\""
param **.host.**.crcMode "\"computed\""
param **.host.numExtInterfaces 1
param **.host.ext[0].ext.filterString "\"ip dst host 10.1.1.1\""
param **.host.ext[0].ext.device "\"wlo1\""
param **.host.ext[0].ext.mtu 1500B
param **.host.ipv4.routingTable.routingFile "\"routes.mrt\""
param **.host.numApps 1
param **.host.app[0].typename "\"sdncontroller.SimpleController\""
param **.host.app[0].localAddress "\"10.1.1.1\""
param **.host.app[0].log2file true

vector 0 Net1.host.tcp "rcvd seq" ETV
vector 1 Net1.host.tcp "rcvd ack" ETV
vector 2 Net1.host.tcp "advertised window" ETV
vector 3 Net1.host.tcp "send window" ETV
vector 4 Net1.host.tcp tcpRcvQueueBytes ETV
vector 5 Net1.host.tcp "receive window" ETV
vector 6 Net1.host.tcp "sent ack" ETV
vector 7 Net1.host.tcp "rcvd naseg" ETV
vector 8 Net1.host.tcp "unacked bytes" ETV
vector 9 Net1.host.tcp "rcvd dupAcks" ETV
vector 10 Net1.host.tcp cwnd ETV
10	29	0.016783	1072
3	4	0.000946	29200
3	14	0.00759	29200
3	29	0.016783	29200
5	4	0.000946	7504
5	9	0.004759	7504
5	20	0.009325	7504
5	24	0.009325	7504
2	4	0.000946	3013934047
2	4	0.000946	3013934047
2	9	0.004759	3013934047
2	20	0.009325	3013934048
2	24	0.009325	3013934048
6	4	0.000946	3013926543
6	9	0.004759	3013926543
6	20	0.009325	3013926544
6	24	0.009325	3013926544
0	4	0.000946	3013926542
0	9	0.004759	3013926542
0	14	0.00759	3013926543
0	20	0.009325	3013926543
0	29	0.016783	3013926544
1	4	0.000946	0
1	9	0.004759	0
1	14	0.00759	237
1	20	0.009325	237
1	29	0.016783	238
8	14	0.00759	0
8	24	0.009325	1
8	29	0.016783	0
9	20	0.009325	0
9	29	0.016783	0
7	9	0.004759	1
4	4	0.000946	0
4	9	0.004759	0
4	20	0.009325	0
4	24	0.009325	0
vector 11 Net1.host.tcp "rcvd seq" ETV
vector 12 Net1.host.tcp "rcvd ack" ETV
vector 13 Net1.host.tcp "advertised window" ETV
vector 14 Net1.host.tcp "send window" ETV
vector 15 Net1.host.tcp tcpRcvQueueBytes ETV
vector 16 Net1.host.tcp "receive window" ETV
vector 17 Net1.host.tcp "sent ack" ETV
vector 18 Net1.host.tcp "unacked bytes" ETV
vector 19 Net1.host.tcp "rcvd dupAcks" ETV
vector 20 Net1.host.tcp "measured RTT" ETV
vector 21 Net1.host.tcp "smoothed RTT" ETV
vector 22 Net1.host.tcp RTTVAR ETV
vector 23 Net1.host.tcp RTO ETV
vector 24 Net1.host.tcp cwnd ETV
11	33	0.162629	635316521
11	38	0.168609	635316522
11	44	0.173594	635316522
11	54	0.179313	635316530
11	59	0.183281	635316530
11	62	0.184702	635316530
11	68	0.540961	635316706
11	74	0.791901	635316814
11	80	0.823375	635316922
11	86	1.111531	635317026
11	92	1.116388	635317134
11	98	1.431508	635317222
11	104	1.49706	635317330
11	110	1.656531	635317394
11	116	1.847536	635317458
11	122	1.852253	635317566
11	128	2.391489	635317654
12	33	0.162629	0
12	38	0.168609	40658
12	44	0.173594	40658
12	54	0.179313	40666
12	59	0.183281	40674
12	62	0.184702	40674
12	68	0.540961	40674
12	74	0.791901	40674
12	80	0.823375	40674
12	86	1.111531	40674
12	92	1.116388	40674
12	98	1.431508	40674
12	104	1.49706	40674
12	110	1.656531	40674
12	116	1.847536	40674
12	122	1.852253	40674
12	128	2.391489	40674
13	33	0.162629	635324026
13	33	0.162629	635324026
13	44	0.173594	635324034
13	47	0.173594	635324034
13	54	0.179313	635324034
13	62	0.184702	635324210
13	68	0.540961	635324318
13	74	0.791901	635324426
13	80	0.823375	635324530
13	86	1.111531	635324638
13	92	1.116388	635324726
13	98	1.431508	635324834
13	104	1.49706	635324898
13	110	1.656531	635324962
13	116	1.847536	635325070
13	122	1.852253	635325158
13	128	2.391489	635325266
14	33	0.162629	29200
14	38	0.168609	29200
14	54	0.179313	29200
14	59	0.183281	29200
15	33	0.162629	0
15	44	0.173594	0
15	44	0.173594	0
15	47	0.173594	0
15	54	0.179313	0
15	62	0.184702	0
15	62	0.184702	0
15	68	0.540961	0
15	68	0.540961	0
15	74	0.791901	0
15	74	0.791901	0
15	80	0.823375	0
15	80	0.823375	0
15	86	1.111531	0
15	86	1.111531	0
15	92	1.116388	0
15	92	1.116388	0
15	98	1.431508	0
15	98	1.431508	0
15	104	1.49706	0
15	104	1.49706	0
15	110	1.656531	0
15	110	1.656531	0
15	116	1.847536	0
15	116	1.847536	0
15	122	1.852253	0
15	122	1.852253	0
15	128	2.391489	0
15	128	2.391489	0
16	33	0.162629	7504
16	44	0.173594	7504
16	47	0.173594	7504
16	54	0.179313	7504
16	62	0.184702	7504
16	68	0.540961	7504
16	74	0.791901	7504
16	80	0.823375	7504
16	86	1.111531	7504
16	92	1.116388	7504
16	98	1.431508	7504
16	104	1.49706	7504
16	110	1.656531	7504
16	116	1.847536	7504
16	122	1.852253	7504
16	128	2.391489	7504
17	33	0.162629	635316522
17	44	0.173594	635316530
17	47	0.173594	635316530
17	54	0.179313	635316530
17	62	0.184702	635316706
17	68	0.540961	635316814
17	74	0.791901	635316922
17	80	0.823375	635317026
17	86	1.111531	635317134
17	92	1.116388	635317222
17	98	1.431508	635317330
17	104	1.49706	635317394
17	110	1.656531	635317458
17	116	1.847536	635317566
17	122	1.852253	635317654
17	128	2.391489	635317762
18	38	0.168609	0
18	47	0.173594	8
18	54	0.179313	0
18	54	0.179313	8
18	59	0.183281	0
19	44	0.173594	0
19	54	0.179313	0
19	59	0.183281	0
19	62	0.184702	0
19	68	0.540961	0
19	74	0.791901	0
19	80	0.823375	0
19	86	1.111531	0
19	92	1.116388	0
19	98	1.431508	0
19	104	1.49706	0
19	110	1.656531	0
19	116	1.847536	0
19	122	1.852253	0
19	128	2.391489	0
20	54	0.179313	0.005719
20	59	0.183281	0.003968
21	54	0.179313	0.000714875
21	59	0.183281	0.001121515625
22	54	0.179313	0.656964875
22	59	0.183281	0.57525090625
23	54	0.179313	2.628574375
23	59	0.183281	2.302125140625
24	54	0.179313	1072
24	59	0.183281	1608

