version 2
run try-0-20190528-17:33:49-29640
attr configname try
attr datetime 20190528-17:33:49
attr experiment try
attr inifile omnetpp.ini
attr iterationvars ""
attr iterationvarsf ""
attr measurement ""
attr network sdncontroller.simulations.Net1
attr processid 29640
attr repetition 0
attr replication #0
attr resultdir results
attr runnumber 0
attr seedset 0
param **.host.app[0].mntopo "\"net1\""
param **.host.app[0].application "\"arpMan1\""
param **.host.app[0].flows "xmldoc(\"flows/flow2.xml\")"
param **.networkConfiguratorModule "\"\""
param **.host.**.crcMode "\"computed\""
param **.host.numExtInterfaces 1
param **.host.ext[0].ext.filterString "\"ip dst host 10.1.1.1\""
param **.host.ext[0].ext.device "\"wlo1\""
param **.host.ext[0].ext.mtu 1500B
param **.host.ipv4.routingTable.routingFile "\"routes.mrt\""
param **.host.numApps 1
param **.host.app[0].typename "\"sdncontroller.SimpleController\""
param **.host.app[0].localAddress "\"10.1.1.1\""
param **.host.app[0].log2file true

vector 0 Net1.host.tcp "rcvd seq" ETV
vector 1 Net1.host.tcp "rcvd ack" ETV
vector 2 Net1.host.tcp "advertised window" ETV
vector 3 Net1.host.tcp "send window" ETV
vector 4 Net1.host.tcp tcpRcvQueueBytes ETV
vector 5 Net1.host.tcp "receive window" ETV
vector 6 Net1.host.tcp "sent ack" ETV
vector 7 Net1.host.tcp "rcvd seq" ETV
vector 8 Net1.host.tcp "rcvd ack" ETV
vector 9 Net1.host.tcp "advertised window" ETV
vector 10 Net1.host.tcp "send window" ETV
vector 11 Net1.host.tcp tcpRcvQueueBytes ETV
vector 12 Net1.host.tcp "receive window" ETV
vector 13 Net1.host.tcp "sent ack" ETV
vector 14 Net1.host.tcp "rcvd naseg" ETV
vector 15 Net1.host.tcp "rcvd seq" ETV
vector 16 Net1.host.tcp "rcvd ack" ETV
vector 17 Net1.host.tcp "advertised window" ETV
vector 18 Net1.host.tcp "send window" ETV
vector 19 Net1.host.tcp tcpRcvQueueBytes ETV
vector 20 Net1.host.tcp "receive window" ETV
vector 21 Net1.host.tcp "sent ack" ETV
vector 22 Net1.host.tcp "unacked bytes" ETV
vector 23 Net1.host.tcp "rcvd dupAcks" ETV
vector 24 Net1.host.tcp "unacked bytes" ETV
vector 25 Net1.host.tcp "rcvd dupAcks" ETV
vector 26 Net1.host.tcp cwnd ETV
26	58	0.032303	1072
10	9	0.006137	29200
10	27	0.019219	29200
10	58	0.032303	29200
12	9	0.006137	7504
12	14	0.011758	7504
12	33	0.021093	7504
12	37	0.021093	7504
9	9	0.006137	2350304283
9	9	0.006137	2350304283
9	14	0.011758	2350304283
9	33	0.021093	2350304284
9	37	0.021093	2350304284
13	9	0.006137	2350296779
13	14	0.011758	2350296779
13	33	0.021093	2350296780
13	37	0.021093	2350296780
7	9	0.006137	2350296778
7	14	0.011758	2350296778
7	27	0.019219	2350296779
7	33	0.021093	2350296779
7	58	0.032303	2350296780
8	9	0.006137	0
8	14	0.011758	0
8	27	0.019219	1535
8	33	0.021093	1535
8	58	0.032303	1536
22	27	0.019219	0
22	37	0.021093	1
22	58	0.032303	0
23	33	0.021093	0
23	58	0.032303	0
14	14	0.011758	1
11	9	0.006137	0
11	14	0.011758	0
11	33	0.021093	0
11	37	0.021093	0
vector 27 Net1.host.tcp "measured RTT" ETV
vector 28 Net1.host.tcp "smoothed RTT" ETV
vector 29 Net1.host.tcp RTTVAR ETV
vector 30 Net1.host.tcp RTO ETV
vector 31 Net1.host.tcp cwnd ETV
0	4	0.001424	2450461288
0	24	0.018171	2450461289
1	4	0.001424	0
1	24	0.018171	0
2	4	0.001424	2450468793
2	4	0.001424	2450468793
3	4	0.001424	29200
4	4	0.001424	0
5	4	0.001424	7504
6	4	0.001424	2450461289
15	19	0.014699	3126340321
15	42	0.026607	3126340322
15	48	0.028684	3126340322
15	62	0.034789	3126340330
15	67	0.037055	3126340330
15	70	0.038103	3126340330
15	76	4.578677	3126340410
15	85	4.638025	3126340418
15	92	9.578768	3126340418
15	99	9.600146	3126340426
15	104	9.602084	3126340426
15	110	9.646048	3126340434
15	113	14.579068	3126340434
15	122	14.598064	3126340442
16	19	0.014699	0
16	42	0.026607	3675
16	48	0.028684	3675
16	62	0.034789	3683
16	67	0.037055	3691
16	70	0.038103	3691
16	76	4.578677	3691
16	85	4.638025	3699
16	92	9.578768	3699
16	99	9.600146	3707
16	104	9.602084	3707
16	110	9.646048	3715
16	113	14.579068	3715
16	122	14.598064	3723
17	19	0.014699	3126347826
17	19	0.014699	3126347826
17	48	0.028684	3126347834
17	51	0.028684	3126347834
17	62	0.034789	3126347834
17	70	0.038103	3126347914
17	76	4.578677	3126347922
17	79	4.578677	3126347922
17	87	9.578677	3126347922
17	92	9.578768	3126347930
17	99	9.600146	3126347930
17	104	9.602084	3126347938
17	113	14.579068	3126347946
17	116	14.579068	3126347946
18	19	0.014699	29200
18	42	0.026607	29200
18	62	0.034789	29200
18	67	0.037055	29200
18	85	4.638025	29200
18	99	9.600146	29200
18	110	9.646048	29200
18	122	14.598064	29200
19	19	0.014699	0
19	48	0.028684	0
19	48	0.028684	0
19	51	0.028684	0
19	62	0.034789	0
19	70	0.038103	0
19	70	0.038103	0
19	76	4.578677	0
19	76	4.578677	0
19	79	4.578677	0
19	87	9.578677	0
19	92	9.578768	0
19	92	9.578768	0
19	99	9.600146	0
19	104	9.602084	0
19	104	9.602084	0
19	113	14.579068	0
19	113	14.579068	0
19	116	14.579068	0
20	19	0.014699	7504
20	48	0.028684	7504
20	51	0.028684	7504
20	62	0.034789	7504
20	70	0.038103	7504
20	76	4.578677	7504
20	79	4.578677	7504
20	87	9.578677	7504
20	92	9.578768	7504
20	99	9.600146	7504
20	104	9.602084	7504
20	113	14.579068	7504
20	116	14.579068	7504
21	19	0.014699	3126340322
21	48	0.028684	3126340330
21	51	0.028684	3126340330
21	62	0.034789	3126340330
21	70	0.038103	3126340410
21	76	4.578677	3126340418
21	79	4.578677	3126340418
21	87	9.578677	3126340418
21	92	9.578768	3126340426
21	99	9.600146	3126340426
21	104	9.602084	3126340434
21	113	14.579068	3126340442
21	116	14.579068	3126340442
24	42	0.026607	0
24	51	0.028684	8
24	62	0.034789	0
24	62	0.034789	8
24	67	0.037055	0
24	79	4.578677	8
24	85	4.638025	0
24	87	9.578677	8
24	99	9.600146	0
24	99	9.600146	8
24	110	9.646048	0
24	116	14.579068	8
24	122	14.598064	0
25	48	0.028684	0
25	62	0.034789	0
25	67	0.037055	0
25	70	0.038103	0
25	76	4.578677	0
25	85	4.638025	0
25	92	9.578768	0
25	99	9.600146	0
25	104	9.602084	0
25	110	9.646048	0
25	113	14.579068	0
25	122	14.598064	0
27	62	0.034789	0.006105
27	67	0.037055	0.002266
27	85	4.638025	0.059348
27	99	9.600146	0.021469
27	110	9.646048	0.045902
27	122	14.598064	0.018996
28	62	0.034789	0.000763125
28	67	0.037055	0.000950984375
28	85	4.638025	0.008250611328
28	99	9.600146	0.009902909912
28	110	9.646048	0.014402796173
28	122	14.598064	0.014976946651
29	62	0.034789	0.657013125
29	67	0.037055	0.57507434375
29	85	4.638025	0.510489677734
29	99	9.600146	0.448330766601
29	110	9.646048	0.396789307037
29	122	14.598064	0.347764794136
30	62	0.034789	2.628815625
30	67	0.037055	2.301248359375
30	85	4.638025	2.050209322264
30	99	9.600146	1.803225976316
30	110	9.646048	1.601560024321
30	122	14.598064	1.406036123195
31	62	0.034789	1072
31	67	0.037055	1608
31	85	4.638025	1072
31	99	9.600146	1072
31	110	9.646048	1608
31	122	14.598064	1072

